<?xml version="1.0" encoding="UTF-8"?>

<!-- generated on 2024-08-05 12:17:35 by Eclipse SUMO netconvert Version 1.20.0
<configuration xmlns:xsi="http://www.w3.org/2001/XMLSchema-instance" xsi:noNamespaceSchemaLocation="http://sumo.dlr.de/xsd/netconvertConfiguration.xsd">

    <input>
        <node-files value="nodes.nod.xml"/>
        <edge-files value="edges.edg.xml"/>
        <connection-files value="connections.con.xml"/>
    </input>

    <output>
        <output-file value="network.net.xml"/>
    </output>

</configuration>
-->

<net version="1.20" junctionCornerDetail="5" limitTurnSpeed="5.50" xmlns:xsi="http://www.w3.org/2001/XMLSchema-instance" xsi:noNamespaceSchemaLocation="http://sumo.dlr.de/xsd/net_file.xsd">

    <location netOffset="200.00,0.00" convBoundary="0.00,0.00,300.00,100.00" origBoundary="-200.00,0.00,100.00,100.00" projParameter="!"/>

    <edge id=":1_0" function="internal">
        <lane id=":1_0_0" index="0" speed="3.65" length="4.67" shape="0.00,1.60 -1.20,0.80 -1.60,0.00 -1.20,-0.80 0.00,-1.60"/>
    </edge>
    <edge id=":1b_0" function="internal">
        <lane id=":1b_0_0" index="0" speed="13.90" length="8.54" shape="176.00,-4.80 178.46,-5.30 180.00,-6.40 181.54,-7.50 184.00,-8.00"/>
        <lane id=":1b_0_1" index="1" speed="13.90" length="8.54" shape="176.00,-1.60 178.46,-2.10 180.00,-3.20 181.54,-4.30 184.00,-4.80"/>
        <lane id=":1b_0_2" index="2" speed="13.90" length="8.54" shape="176.00,-1.60 184.00,-1.60"/>
    </edge>
    <edge id=":2_0" function="internal">
        <lane id=":2_0_0" index="0" speed="3.65" length="4.67" shape="201.60,100.00 200.80,101.20 200.00,101.60 199.20,101.20 198.40,100.00"/>
    </edge>
    <edge id=":3_0" function="internal">
        <lane id=":3_0_0" index="0" speed="3.65" length="4.67" shape="300.00,-1.60 301.20,-0.80 301.60,0.00 301.20,0.80 300.00,1.60"/>
    </edge>
    <edge id=":main_0" function="internal">
        <lane id=":main_0_0" index="0" speed="6.51" length="9.03" shape="195.20,10.40 194.85,7.95 193.80,6.20 192.05,5.15 189.60,4.80"/>
    </edge>
    <edge id=":main_1" function="internal">
        <lane id=":main_1_0" index="0" speed="9.26" length="19.35" shape="198.40,10.40 199.15,5.15 201.40,1.40 205.15,-0.85 210.40,-1.60"/>
    </edge>
    <edge id=":main_2" function="internal">
        <lane id=":main_2_0" index="0" speed="6.51" length="9.03" shape="210.40,4.80 207.95,5.15 206.20,6.20 205.15,7.95 204.80,10.40"/>
    </edge>
    <edge id=":main_3" function="internal">
        <lane id=":main_3_0" index="0" speed="13.90" length="20.80" shape="210.40,4.80 189.60,4.80"/>
        <lane id=":main_3_1" index="1" speed="13.90" length="20.80" shape="210.40,1.60 189.60,1.60"/>
    </edge>
    <edge id=":main_5" function="internal">
        <lane id=":main_5_0" index="0" speed="13.90" length="21.12" shape="189.60,-8.00 195.88,-7.50 200.20,-6.40 204.41,-5.30 210.40,-4.80"/>
        <lane id=":main_5_1" index="1" speed="13.90" length="21.12" shape="189.60,-4.80 195.88,-4.30 200.20,-3.20 204.41,-2.10 210.40,-1.60"/>
    </edge>
    <edge id=":main_7" function="internal">
        <lane id=":main_7_0" index="0" speed="9.26" length="5.01" shape="189.60,-1.60 194.56,-0.89"/>
    </edge>
    <edge id=":main_8" function="internal">
        <lane id=":main_8_0" index="0" speed="9.26" length="14.34" shape="194.56,-0.89 194.85,-0.85 198.60,1.40 200.85,5.15 201.60,10.40"/>
    </edge>

    <edge id="1btomain" from="1b" to="main" priority="-1">
        <lane id="1btomain_0" index="0" speed="13.90" length="5.60" shape="184.00,-8.00 189.60,-8.00"/>
        <lane id="1btomain_1" index="1" speed="13.90" length="5.60" shape="184.00,-4.80 189.60,-4.80"/>
        <lane id="1btomain_2" index="2" speed="13.90" length="5.60" shape="184.00,-1.60 189.60,-1.60"/>
    </edge>
    <edge id="1to1b" from="1" to="1b" priority="-1">
        <lane id="1to1b_0" index="0" speed="13.90" length="176.00" shape="0.00,-4.80 176.00,-4.80"/>
        <lane id="1to1b_1" index="1" speed="13.90" length="176.00" shape="0.00,-1.60 176.00,-1.60"/>
    </edge>
    <edge id="2tomain" from="2" to="main" priority="-1">
        <lane id="2tomain_0" index="0" speed="13.90" length="89.60" shape="195.20,100.00 195.20,10.40"/>
        <lane id="2tomain_1" index="1" speed="13.90" length="89.60" shape="198.40,100.00 198.40,10.40"/>
    </edge>
    <edge id="3tomain" from="3" to="main" priority="-1">
        <lane id="3tomain_0" index="0" speed="13.90" length="89.60" shape="300.00,4.80 210.40,4.80"/>
        <lane id="3tomain_1" index="1" speed="13.90" length="89.60" shape="300.00,1.60 210.40,1.60"/>
    </edge>
    <edge id="mainto1" from="main" to="1" priority="-1">
        <lane id="mainto1_0" index="0" speed="13.90" length="189.60" shape="189.60,4.80 0.00,4.80"/>
        <lane id="mainto1_1" index="1" speed="13.90" length="189.60" shape="189.60,1.60 0.00,1.60"/>
    </edge>
    <edge id="mainto2" from="main" to="2" priority="-1">
        <lane id="mainto2_0" index="0" speed="13.90" length="89.60" shape="204.80,10.40 204.80,100.00"/>
        <lane id="mainto2_1" index="1" speed="13.90" length="89.60" shape="201.60,10.40 201.60,100.00"/>
    </edge>
    <edge id="mainto3" from="main" to="3" priority="-1">
        <lane id="mainto3_0" index="0" speed="13.90" length="89.60" shape="210.40,-4.80 300.00,-4.80"/>
        <lane id="mainto3_1" index="1" speed="13.90" length="89.60" shape="210.40,-1.60 300.00,-1.60"/>
    </edge>

    <tlLogic id="main" type="static" programID="0" offset="0">
        <phase duration="20" state="rrGGGGGg"/>
        <phase duration="3"  state="rryyyGGg"/>
        <phase duration="6"  state="rrrrrGGG"/>
        <phase duration="3"  state="rrrrryyy"/>
        <phase duration="37" state="GGGrrrrr"/>
        <phase duration="3"  state="yyGrrrrr"/>
    </tlLogic>

    <junction id="1" type="priority" x="0.00" y="0.00" incLanes="mainto1_0 mainto1_1" intLanes=":1_0_0" shape="0.00,0.00 0.00,6.40 0.00,0.00">
        <request index="0" response="0" foes="0" cont="0"/>
    </junction>
    <junction id="1b" type="priority" x="180.00" y="0.00" incLanes="1to1b_0 1to1b_1" intLanes=":1b_0_0 :1b_0_1 :1b_0_2" shape="184.00,0.00 184.00,-9.60 180.97,-8.77 179.03,-7.23 177.79,-6.64 176.00,-6.40 176.00,0.00">
        <request index="0" response="000" foes="000" cont="0"/>
        <request index="1" response="000" foes="000" cont="0"/>
        <request index="2" response="000" foes="000" cont="0"/>
    </junction>
    <junction id="2" type="priority" x="200.00" y="100.00" incLanes="mainto2_0 mainto2_1" intLanes=":2_0_0" shape="200.00,100.00 206.40,100.00 200.00,100.00">
        <request index="0" response="0" foes="0" cont="0"/>
    </junction>
    <junction id="3" type="priority" x="300.00" y="0.00" incLanes="mainto3_0 mainto3_1" intLanes=":3_0_0" shape="300.00,0.00 300.00,-6.40 300.00,0.00">
        <request index="0" response="0" foes="0" cont="0"/>
    </junction>
    <junction id="main" type="traffic_light" x="200.00" y="0.00" incLanes="2tomain_0 2tomain_1 3tomain_0 3tomain_1 1btomain_0 1btomain_1 1btomain_2" intLanes=":main_0_0 :main_1_0 :main_2_0 :main_3_0 :main_3_1 :main_5_0 :main_5_1 :main_8_0" shape="193.60,10.40 206.40,10.40 206.84,8.18 207.40,7.40 208.18,6.84 209.18,6.51 210.40,6.40 210.40,-6.40 205.94,-6.64 202.67,-7.23 197.33,-8.77 194.06,-9.36 189.60,-9.60 189.60,6.40 191.82,6.84 192.60,7.40 193.16,8.18 193.49,9.18">
        <request index="0" response="00011000" foes="00011000" cont="0"/>
        <request index="1" response="11111000" foes="11111000" cont="0"/>
        <request index="2" response="00000000" foes="00000000" cont="0"/>
        <request index="3" response="00000000" foes="10000011" cont="0"/>
        <request index="4" response="00000000" foes="10000011" cont="0"/>
        <request index="5" response="00000000" foes="00000010" cont="0"/>
        <request index="6" response="00000000" foes="00000010" cont="0"/>
        <request index="7" response="00011000" foes="00011010" cont="1"/>
    </junction>

    <junction id=":main_8_0" type="internal" x="194.56" y="-0.89" incLanes=":main_7_0 3tomain_0 3tomain_1" intLanes=":main_1_0 :main_3_0 :main_3_1"/>

    <connection from="1btomain" to="mainto3" fromLane="0" toLane="0" via=":main_5_0" tl="main" linkIndex="5" dir="s" state="O"/>
    <connection from="1btomain" to="mainto3" fromLane="1" toLane="1" via=":main_5_1" tl="main" linkIndex="6" dir="s" state="O"/>
    <connection from="1btomain" to="mainto2" fromLane="2" toLane="1" via=":main_7_0" tl="main" linkIndex="7" dir="l" state="o"/>
    <connection from="1to1b" to="1btomain" fromLane="0" toLane="0" via=":1b_0_0" dir="s" state="M"/>
    <connection from="1to1b" to="1btomain" fromLane="1" toLane="1" via=":1b_0_1" dir="s" state="M"/>
    <connection from="1to1b" to="1btomain" fromLane="1" toLane="2" via=":1b_0_2" dir="s" state="M"/>
    <connection from="2tomain" to="mainto1" fromLane="0" toLane="0" via=":main_0_0" tl="main" linkIndex="0" dir="r" state="o"/>
    <connection from="2tomain" to="mainto3" fromLane="1" toLane="1" via=":main_1_0" tl="main" linkIndex="1" dir="l" state="o"/>
    <connection from="3tomain" to="mainto2" fromLane="0" toLane="0" via=":main_2_0" tl="main" linkIndex="2" dir="r" state="O"/>
    <connection from="3tomain" to="mainto1" fromLane="0" toLane="0" via=":main_3_0" tl="main" linkIndex="3" dir="s" state="O"/>
    <connection from="3tomain" to="mainto1" fromLane="1" toLane="1" via=":main_3_1" tl="main" linkIndex="4" dir="s" state="O"/>
    <connection from="mainto1" to="1to1b" fromLane="1" toLane="1" via=":1_0_0" dir="t" state="M"/>
    <connection from="mainto2" to="2tomain" fromLane="1" toLane="1" via=":2_0_0" dir="t" state="M"/>
    <connection from="mainto3" to="3tomain" fromLane="1" toLane="1" via=":3_0_0" dir="t" state="M"/>

    <connection from=":1_0" to="1to1b" fromLane="0" toLane="1" dir="t" state="M"/>
    <connection from=":1b_0" to="1btomain" fromLane="0" toLane="0" dir="s" state="M"/>
    <connection from=":1b_0" to="1btomain" fromLane="1" toLane="1" dir="s" state="M"/>
    <connection from=":1b_0" to="1btomain" fromLane="2" toLane="2" dir="s" state="M"/>
    <connection from=":2_0" to="2tomain" fromLane="0" toLane="1" dir="t" state="M"/>
    <connection from=":3_0" to="3tomain" fromLane="0" toLane="1" dir="t" state="M"/>
    <connection from=":main_0" to="mainto1" fromLane="0" toLane="0" dir="r" state="M"/>
    <connection from=":main_1" to="mainto3" fromLane="0" toLane="1" dir="l" state="M"/>
    <connection from=":main_2" to="mainto2" fromLane="0" toLane="0" dir="r" state="M"/>
    <connection from=":main_3" to="mainto1" fromLane="0" toLane="0" dir="s" state="M"/>
    <connection from=":main_3" to="mainto1" fromLane="1" toLane="1" dir="s" state="M"/>
    <connection from=":main_5" to="mainto3" fromLane="0" toLane="0" dir="s" state="M"/>
    <connection from=":main_5" to="mainto3" fromLane="1" toLane="1" dir="s" state="M"/>
    <connection from=":main_7" to="mainto2" fromLane="0" toLane="1" via=":main_8_0" dir="l" state="m"/>
    <connection from=":main_8" to="mainto2" fromLane="0" toLane="1" dir="l" state="M"/>

</net>
