<?xml version="1.0" encoding="UTF-8"?>
<nodes>
    <node id="main" x="0.0" y="0.0" type="traffic_light"/>
    <node id="1" x="-300.0" y="0.0"/>
    <node id="1b" x="-20.0" y="0.0"/>
    <node id="2" x="0" y="100.0"/>
    <node id="3" x="100.0" y="0.0"/>
</nodes>