<?xml version="1.0" encoding="UTF-8"?>
<routes>
    <!-- Define vehicle types -->
    <vType id="car" accel="2.3" decel="4.0" sigma="0.5" length="4.0" maxSpeed="13.9"/>
    
    <!-- Define routes -->
    <route id="route0" edges="tomerge merge finish"/>
    <route id="route1" edges="tomerge merge otherfinish"/>
    
    <!-- Define vehicles with specific lanes -->
    <vehicle id="veh0" type="car" route="route0" depart="0" departLane="1" departSpeed="10"/>
    <vehicle id="veh1" type="car" route="route0" depart="2" departLane="0" departSpeed="13.9"/>
    <vehicle id="veh2" type="car" route="route0" depart="2.2" departLane="1" departSpeed="13.9"/>
</routes>