<?xml version="1.0" encoding="UTF-8"?>
<configuration>
    <input>
        <net-file value="Network2.net.xml"/>
        <route-files value="test5.rou.xml"/>
    </input>
    <time>
        <begin value="0"/>
	<step-length value="0.1"/>
    </time>
</configuration>